@<TRIPOS>MOLECULE
CBN
55   59    1
SMALL
USER_CHARGES


@<TRIPOS>ATOM
      1 C4         43.1447    8.2071    7.4367 C.ar      1 9UD        -0.0191 
      2 C5         43.9116    8.3160    8.5979 C.ar      1 9UD        -0.0865 
      3 C6         44.9933    7.4699    8.8566 C.ar      1 9UD        -0.1269 
      4 N1         40.6571   10.7120    6.2823 N.2       1 9UD        -0.2246 
      5 C7         45.3314    6.4740    7.9083 C.ar      1 9UD         0.2882 
      6 C8         44.5206    6.3418    6.7685 C.ar      1 9UD        -0.1480 
      7 N2         46.3493    5.5367    8.1848 N.pl3     1 9UD        -0.4192 
      8 C9         43.4424    7.1933    6.5107 C.ar      1 9UD        -0.1263 
      9 C10        42.6134    6.9838    5.2377 C.3       1 9UD         0.4458 
     10 C11        47.2910    5.8340    9.2744 C.3       1 9UD        -0.0292 
     11 C12        46.5531    6.3862   10.5011 C.3       1 9UD        -0.1468 
     12 N3         45.5025    3.4638    7.5023 N.2       1 9UD        -0.2467 
     13 C13        45.8215    7.6742   10.1221 C.3       1 9UD        -0.0752 
     14 C14        46.4865    4.3419    7.5293 C.ar      1 9UD         0.1681 
     15 N4         45.9261    2.4474    6.7324 N.pl3     1 9UD         0.1432 
     16 N          40.2727   10.4835    7.5417 N.pl3     1 9UD         0.0885 
     17 C          39.1196   11.1882    8.0712 C.3       1 9UD        -0.0996 
     18 C1         41.0755    9.5744    8.1797 C.ar      1 9UD        -0.1765 
     19 C2         42.0384    9.1916    7.2570 C.ar      1 9UD        -0.1757 
     20 C20        47.2044    2.6595    6.2845 C.ar      1 9UD        -0.0304 
     21 C21        47.6104    3.8668    6.8301 C.ar      1 9UD        -0.1606 
     22 C22        49.0243    4.4013    6.6229 C.3       1 9UD         0.0317 
     23 C23        49.5671    2.0689    5.8516 C.3       1 9UD         0.0200 
     24 C24        48.1009    1.7311    5.4824 C.3       1 9UD        -0.1560 
     25 C25        50.4010    4.0077    4.5877 C.2       1 9UD         0.4677 
     26 C26        50.7527    5.4969    4.5153 C.3       1 9UD        -0.1986 
     27 C3         41.7263    9.9665    6.1279 C.ar      1 9UD        -0.0858 
     28 F          42.8599    5.8203    4.6328 F         1 9UD        -0.2347 
     29 F1         41.3060    7.0464    5.4817 F         1 9UD        -0.2347 
     30 N5         49.7855    3.5247    5.6971 N.am      1 9UD        -0.3632 
     31 O1         50.8100    3.2814    3.6791 O.2       1 9UD        -0.5390 
     32 HC5        43.6807    9.0942    9.3120 H         1 9UD         0.1371 
     33 HC8        44.7441    5.5660    6.0521 H         1 9UD         0.1476 
     34 HC10       42.8469    7.7623    4.5128 H         1 9UD         0.0848 
     35 H111       48.0024    6.5738    8.9037 H         1 9UD         0.0743 
     36 H112       47.8747    4.9571    9.5548 H         1 9UD         0.0743 
     37 H121       47.2623    6.5821   11.3059 H         1 9UD         0.0792 
     38 H122       45.8543    5.6449   10.8906 H         1 9UD         0.0792 
     39 H131       45.1997    8.0165   10.9506 H         1 9UD         0.0785 
     40 H132       46.5557    8.4585    9.9385 H         1 9UD         0.0785 
     41 HXT1       38.9655   10.9200    9.1170 H         1 9UD         0.0853 
     42 HXT2       39.2851   12.2641    8.0001 H         1 9UD         0.0853 
     43 HXT3       38.2331   10.9171    7.4963 H         1 9UD         0.0853 
     44 HC1        40.8885    9.2806    9.2021 H         1 9UD         0.2083 
     45 H221       49.5550    4.5153    7.5676 H         1 9UD         0.0850 
     46 H222       48.9447    5.4266    6.2631 H         1 9UD         0.0850 
     47 H231       50.3146    1.4706    5.3273 H         1 9UD         0.0957 
     48 H232       49.7427    1.8260    6.8993 H         1 9UD         0.0957 
     49 H241       47.9477    1.8765    4.4148 H         1 9UD         0.0931 
     50 H242       47.8941    0.6802    5.6798 H         1 9UD         0.0931 
     51 H261       51.5246    5.6745    3.7668 H         1 9UD         0.0876 
     52 H262       49.8790    6.0873    4.2426 H         1 9UD         0.0876 
     53 H263       51.1343    5.8563    5.4709 H         1 9UD         0.0876 
     54 HC3        42.2829    9.9827    5.2039 H         1 9UD         0.1853 
     55 HN4        45.3174    1.6614    6.5539 H         1 9UD         0.0000 
@<TRIPOS>BOND
     1    1    2 ar   
     2    1    8 ar   
     3    1   19 1    
     4    2    3 ar   
     5    2   32 1    
     6    3    5 ar   
     7    3   13 1    
     8    4   16 ar   
     9    4   27 ar   
    10    5    6 ar   
    11    5    7 1    
    12    6    8 ar   
    13    6   33 1    
    14    7   10 1    
    15    7   14 1    
    16    8    9 1    
    17    9   28 1    
    18    9   29 1    
    19    9   34 1    
    20   10   11 1    
    21   10   35 1    
    22   10   36 1    
    23   11   13 1    
    24   11   37 1    
    25   11   38 1    
    26   12   14 ar   
    27   12   15 ar   
    28   13   39 1    
    29   13   40 1    
    30   14   21 ar   
    31   15   20 ar   
    32   15   55 1    
    33   16   17 1    
    34   16   18 ar   
    35   17   41 1    
    36   17   42 1    
    37   17   43 1    
    38   18   19 ar   
    39   18   44 1    
    40   19   27 ar   
    41   20   21 ar   
    42   20   24 1    
    43   21   22 1    
    44   22   30 1    
    45   22   45 1    
    46   22   46 1    
    47   23   24 1    
    48   23   30 1    
    49   23   47 1    
    50   23   48 1    
    51   24   49 1    
    52   24   50 1    
    53   25   26 1    
    54   25   30 am   BACKBONE|DICT|INTERRES
    55   25   31 2    
    56   26   51 1    
    57   26   52 1    
    58   26   53 1    
    59   27   54 1    
@<TRIPOS>SUBSTRUCTURE
     1 9UD         1 GROUP             0 A     ****    0 ROOT    
