@<TRIPOS>MOLECULE
POI
16   16    1
SMALL
USER_CHARGES


@<TRIPOS>ATOM
      1 C1A        27.3470    3.1258    3.7331 C.ar      1 PK0         0.0192 
      2 C2A        27.9213    4.3934    3.5954 C.ar      1 PK0        -0.0823 
      3 C3A        27.1249    5.5261    3.5652 C.ar      1 PK0        -0.0951 
      4 C4A        25.7376    5.4184    3.6536 C.ar      1 PK0        -0.0428 
      5 C5A        25.1331    4.1511    3.7930 C.ar      1 PK0        -0.0609 
      6 C6A        25.9546    3.0210    3.8401 C.ar      1 PK0        -0.0679 
      7 C41        24.9838    6.6585    3.6187 C.1       1 PK0         0.3772 
      8 N41        24.3927    7.6475    3.5915 N.1       1 PK0        -0.3917 
      9 C51        23.6140    3.9602    3.8997 C.3       1 PK0         0.4656 
     10 F1         22.9477    4.7363    3.0532 F         1 PK0        -0.1678 
     11 F2         23.2288    4.2557    5.1332 F         1 PK0        -0.1678 
     12 F3         23.2374    2.7110    3.6444 F         1 PK0        -0.1678 
     13 HC2A       28.9933    4.4944    3.5118 H         1 PK0         0.0000 
     14 HC3A       27.5776    6.5023    3.4724 H         1 PK0         0.0000 
     15 HC6A       25.4938    2.0519    3.9618 H         1 PK0         0.0000 
     16 HC1A       27.9755    2.2478    3.7555 H         1 PK0         0.0000 
@<TRIPOS>BOND
     1    1    2 ar   
     2    1    6 ar   
     3    1   16 1    
     4    2    3 ar   
     5    2   13 1    
     6    3    4 ar   
     7    3   14 1    
     8    4    5 ar   
     9    4    7 1    
    10    5    6 ar   
    11    5    9 1    
    12    6   15 1    
    13    7    8 3    
    14    9   10 1    
    15    9   11 1    
    16    9   12 1    
@<TRIPOS>SUBSTRUCTURE
     1 PK0         1 GROUP             0 A     ****    0 ROOT    
